33

C     -0.779311   -1.557153    1.428769
C     -0.213969   -1.180557    0.031814
C      0.201471   -2.530828   -0.611034
C     -1.378144   -0.564694   -0.816943
C     -1.999347    0.710185   -0.304274
C     -1.362741    2.029324   -0.590007
C     -3.193343    0.671245    0.589963
C      1.021827   -0.250036    0.097230
C      1.506802    0.235649    1.330314
C      2.619738    1.080414    1.397776
Br     3.222115    1.704968    3.078819
C      3.287443    1.467340    0.243800
C      2.836885    1.005156   -0.988291
C      1.721951    0.160538   -1.056137
O      1.311626   -0.264191   -2.289366
H     -1.656552   -2.208908    1.336174
H     -1.090346   -0.679132    2.004121
H     -0.038357   -2.101180    2.027149
H      1.057526   -2.971685   -0.086223
H      0.476260   -2.434082   -1.665088
H     -0.620687   -3.255589   -0.570804
H     -2.177580   -1.313860   -0.907257
H     -1.059744   -0.392449   -1.851076
H     -2.124919    2.803822   -0.721938
H     -0.770974    1.994938   -1.509308
H     -0.711064    2.327210    0.236191
H     -2.933129    1.033700    1.588985
H     -3.590802   -0.343151    0.689142
H     -3.990857    1.303023    0.187026
H      1.023536   -0.031696    2.265147
H      4.152030    2.123011    0.292745
H      3.363908    1.312097   -1.886860
H      1.888750    0.116569   -2.970559
