38

C      6.017662   -0.530724    0.923340
O      4.623582   -0.308629    0.740720
C      4.327542    0.626539   -0.213024
O      5.175316    1.232115   -0.856477
C      2.837074    0.762651   -0.332845
N      2.031771   -0.268620    0.102874
C      0.749284   -0.111294   -0.018491
C     -0.211837   -1.255797    0.462398
C      0.104523   -2.522923   -0.342410
C      0.023772   -1.487989    1.960448
N     -1.585933   -0.809902    0.213911
C     -2.758875   -1.477744    0.472904
O     -2.787940   -2.599344    0.977079
C     -3.947486   -0.730991    0.094118
N     -5.207308   -1.107896    0.219565
N     -5.979199   -0.071377   -0.275213
C     -5.136078    0.860272   -0.665638
C     -5.395375    2.177311   -1.268935
O     -3.829675    0.520059   -0.465932
N      0.114735    0.952262   -0.525795
C      0.847269    1.975925   -0.944943
O      0.395197    3.022149   -1.419632
C      2.327429    1.888332   -0.848041
O      3.026911    2.994150   -1.283178
H      6.141673   -1.291927    1.698681
H      6.513406    0.385752    1.258668
H      6.473266   -0.902764    0.000209
H     -0.530654   -3.363622   -0.045424
H      1.146271   -2.835161   -0.207877
H     -0.050833   -2.354187   -1.414511
H     -0.615261   -2.284478    2.354976
H      1.062865   -1.769299    2.165389
H     -0.188717   -0.578838    2.535168
H     -1.623616    0.118056   -0.206670
H     -4.932129    2.244459   -2.257710
H     -6.470343    2.345760   -1.382546
H     -4.988752    2.974491   -0.639689
H      2.300464    3.583226   -1.584190
